[
	{
		"Program Information" : 
		{
			"Developer" : "S.S. Papadopulos & Assoc. Inc.",
			"Title" : "writeP3DGSF",
			"Version" : 
			{
				"Date" : "01/2018",
				"Number" : "1.0.0"
			}
		}
	},
	{
		"Timing" : 
		{
			"Elapsed" : 
			{
				"minutes" : 2.69007333e-003,
				"seconds" : 1.61404400e-001
			},
			"Finished" : "Mon Sep 17 13:13:00 2018\n",
			"Started" : "Mon Sep 17 13:13:00 2018\n"
		}
	},
	{
		"Transformation" : 
		{
			"rot" : 0.00000000e+000,
			"xoff" : 5.66126280e+006,
			"yoff" : 1.96199297e+007
		}
	},
	{
		"Flow Model" : 
		{
			"Boundary_Packages" : 
			{
				"CHD" : 
				{
					"Binary_File" : "test_case_5.cbc",
					"Binary_Header" : "CONSTANT HEAD"
				},
				"WEL" : 
				{
					"Binary_File" : "test_case_5.cbc",
					"Binary_Header" : "WELLS"
				}
			},
			"GSF" : [ null ],
			"GSF file" : "",
			"Grid" : 
			{
				"Last node-number in layer" : [               2601 ],
				"Number of layers" : 1,
				"Number of nodes" : 2601,
				"Type" : "Structured"
			},
			"Model type" : "MODFLOW",
			"NAME file" : "test_case_5.nam",
			"Note(s)" : 
			[
				"Successfully initialized MODFLOW.",
				"Successfully read MODFLOW input files.",
				"Successfully copied necessary MODFLOW values/arrays."
			],
			"Output precision" : "single"
		}
	},
	{
		"Warning(s)" : null
	},
	{
		"Error(s)" : null
	}
]
