                                  MODFLOW-2000
      U.S. GEOLOGICAL SURVEY MODULAR FINITE-DIFFERENCE GROUND-WATER FLOW MODEL
                    VERSION 1.19.01 03/25/2010 CHPRC Build 7


 This model run produced both GLOBAL and LIST files.  This is the LIST file.

 
 # BAS6 package for  MODFLOW-2000, generated by Flopy.                           
 THE FREE FORMAT OPTION HAS BEEN SELECTED
    1 LAYERS        51 ROWS        51 COLUMNS
   10 STRESS PERIOD(S) IN SIMULATION

 BAS6 -- BASIC PACKAGE, VERSION 6, 1/11/2000 INPUT READ FROM UNIT   13
          5 ELEMENTS IN IR ARRAY ARE USED BY BAS

 WEL6 -- WELL PACKAGE, VERSION 6, 1/11/2000 INPUT READ FROM UNIT   20
 # WEL package for  MODFLOW-2000, generated by Flopy.
 No named parameters
 MAXIMUM OF      4 ACTIVE WELLS AT ONE TIME
 CELL-BY-CELL FLOWS WILL BE SAVED ON UNIT   53
         16 ELEMENTS IN RX ARRAY ARE USED BY WEL

 CHD6 -- TIME-VARIANT SPECIFIED-HEAD PACKAGE, VERSION 6, 1/11/2000
 INPUT READ FROM UNIT   24
 # CHD package for  MODFLOW-2000, generated by Flopy.
 No named parameters
 MAXIMUM OF    204 TIME-VARIANT SPECIFIED-HEAD CELLS AT ONE TIME
       1020 ELEMENTS IN RX ARRAY ARE USED BY CHD

       1036  ELEMENTS OF RX ARRAY USED OUT OF       1036
          0  ELEMENTS OF RZ ARRAY USED OUT OF          1
          5  ELEMENTS OF IR ARRAY USED OUT OF          5
1
 # BAS6 package for  MODFLOW-2000, generated by Flopy.                           
                                                                                 



                     BOUNDARY ARRAY FOR LAYER   1
 READING ON UNIT   13 WITH FORMAT: (51I10)             

 AQUIFER HEAD WILL BE SET TO -999.99     AT ALL NO-FLOW NODES (IBOUND=0).



                       INITIAL HEAD FOR LAYER   1
 READING ON UNIT   13 WITH FORMAT: (51E15.6)           
 # OC package for  MODFLOW-2000, generated by Flopy.

 OUTPUT CONTROL IS SPECIFIED ONLY AT TIME STEPS FOR WHICH OUTPUT IS DESIRED
 COMPACT CELL-BY-CELL BUDGET FILES WILL BE WRITTEN
 AUXILIARY DATA WILL BE SAVED IN CELL-BY-CELL BUDGET FILES
 HEAD PRINT FORMAT CODE IS   0    DRAWDOWN PRINT FORMAT CODE IS   0
 HEADS WILL BE SAVED ON UNIT   51    DRAWDOWNS WILL BE SAVED ON UNIT    0
1
                            STRESS PERIOD NO.    1, LENGTH =   365.2500    
                            -----------------------------------------------

                              NUMBER OF TIME STEPS =     1

                               MULTIPLIER FOR DELT =     1.000

                            INITIAL TIME STEP SIZE =   365.2500    

 WELL NO.  LAYER   ROW   COL   STRESS RATE         
 --------------------------------------------------
      1      1     11     16     -0.3850E+05
      2      1     19     41     -0.7700E+05
      3      1     30     25     -0.9625E+05
      4      1     43     19     -0.5775E+05

      4 WELLS

 CHD NO.   LAYER   ROW   COL    START HEAD        END HEAD         
 ------------------------------------------------------------------
      1      1      1      1       100.0           100.0    
      2      1      1     51       100.0           100.0    
      3      1      2      1       99.20           99.20    
      4      1      2     51       99.20           99.20    
      5      1      3      1       98.40           98.40    
      6      1      3     51       98.40           98.40    
      7      1      4      1       97.60           97.60    
      8      1      4     51       97.60           97.60    
      9      1      5      1       96.80           96.80    
     10      1      5     51       96.80           96.80    
     11      1      6      1       96.00           96.00    
     12      1      6     51       96.00           96.00    
     13      1      7      1       95.20           95.20    
     14      1      7     51       95.20           95.20    
     15      1      8      1       94.40           94.40    
     16      1      8     51       94.40           94.40    
     17      1      9      1       93.60           93.60    
     18      1      9     51       93.60           93.60    
     19      1     10      1       92.80           92.80    
     20      1     10     51       92.80           92.80    
     21      1     11      1       92.00           92.00    
     22      1     11     51       92.00           92.00    
     23      1     12      1       91.20           91.20    
     24      1     12     51       91.20           91.20    
     25      1     13      1       90.40           90.40    
     26      1     13     51       90.40           90.40    
     27      1     14      1       89.60           89.60    
     28      1     14     51       89.60           89.60    
     29      1     15      1       88.80           88.80    
     30      1     15     51       88.80           88.80    
     31      1     16      1       88.00           88.00    
     32      1     16     51       88.00           88.00    
     33      1     17      1       87.20           87.20    
     34      1     17     51       87.20           87.20    
     35      1     18      1       86.40           86.40    
     36      1     18     51       86.40           86.40    
     37      1     19      1       85.60           85.60    
     38      1     19     51       85.60           85.60    
     39      1     20      1       84.80           84.80    
     40      1     20     51       84.80           84.80    
     41      1     21      1       84.00           84.00    
     42      1     21     51       84.00           84.00    
     43      1     22      1       83.20           83.20    
     44      1     22     51       83.20           83.20    
     45      1     23      1       82.40           82.40    
     46      1     23     51       82.40           82.40    
     47      1     24      1       81.60           81.60    
     48      1     24     51       81.60           81.60    
     49      1     25      1       80.80           80.80    
     50      1     25     51       80.80           80.80    
     51      1     26      1       80.00           80.00    
     52      1     26     51       80.00           80.00    
     53      1     27      1       79.20           79.20    
     54      1     27     51       79.20           79.20    
     55      1     28      1       78.40           78.40    
     56      1     28     51       78.40           78.40    
     57      1     29      1       77.60           77.60    
     58      1     29     51       77.60           77.60    
     59      1     30      1       76.80           76.80    
     60      1     30     51       76.80           76.80    
     61      1     31      1       76.00           76.00    
     62      1     31     51       76.00           76.00    
     63      1     32      1       75.20           75.20    
     64      1     32     51       75.20           75.20    
     65      1     33      1       74.40           74.40    
     66      1     33     51       74.40           74.40    
     67      1     34      1       73.60           73.60    
     68      1     34     51       73.60           73.60    
     69      1     35      1       72.80           72.80    
     70      1     35     51       72.80           72.80    
     71      1     36      1       72.00           72.00    
     72      1     36     51       72.00           72.00    
     73      1     37      1       71.20           71.20    
     74      1     37     51       71.20           71.20    
     75      1     38      1       70.40           70.40    
     76      1     38     51       70.40           70.40    
     77      1     39      1       69.60           69.60    
     78      1     39     51       69.60           69.60    
     79      1     40      1       68.80           68.80    
     80      1     40     51       68.80           68.80    
     81      1     41      1       68.00           68.00    
     82      1     41     51       68.00           68.00    
     83      1     42      1       67.20           67.20    
     84      1     42     51       67.20           67.20    
     85      1     43      1       66.40           66.40    
     86      1     43     51       66.40           66.40    
     87      1     44      1       65.60           65.60    
     88      1     44     51       65.60           65.60    
     89      1     45      1       64.80           64.80    
     90      1     45     51       64.80           64.80    
     91      1     46      1       64.00           64.00    
     92      1     46     51       64.00           64.00    
     93      1     47      1       63.20           63.20    
     94      1     47     51       63.20           63.20    
     95      1     48      1       62.40           62.40    
     96      1     48     51       62.40           62.40    
     97      1     49      1       61.60           61.60    
     98      1     49     51       61.60           61.60    
     99      1     50      1       60.80           60.80    
    100      1     50     51       60.80           60.80    
    101      1     51      1       60.00           60.00    
    102      1     51     51       60.00           60.00    
    103      1      1      1       100.0           100.0    
    104      1     51      1       60.00           60.00    
    105      1      1      2       100.0           100.0    
    106      1     51      2       60.00           60.00    
    107      1      1      3       100.0           100.0    
    108      1     51      3       60.00           60.00    
    109      1      1      4       100.0           100.0    
    110      1     51      4       60.00           60.00    
    111      1      1      5       100.0           100.0    
    112      1     51      5       60.00           60.00    
    113      1      1      6       100.0           100.0    
    114      1     51      6       60.00           60.00    
    115      1      1      7       100.0           100.0    
    116      1     51      7       60.00           60.00    
    117      1      1      8       100.0           100.0    
    118      1     51      8       60.00           60.00    
    119      1      1      9       100.0           100.0    
    120      1     51      9       60.00           60.00    
    121      1      1     10       100.0           100.0    
    122      1     51     10       60.00           60.00    
    123      1      1     11       100.0           100.0    
    124      1     51     11       60.00           60.00    
    125      1      1     12       100.0           100.0    
    126      1     51     12       60.00           60.00    
    127      1      1     13       100.0           100.0    
    128      1     51     13       60.00           60.00    
    129      1      1     14       100.0           100.0    
    130      1     51     14       60.00           60.00    
    131      1      1     15       100.0           100.0    
    132      1     51     15       60.00           60.00    
    133      1      1     16       100.0           100.0    
    134      1     51     16       60.00           60.00    
    135      1      1     17       100.0           100.0    
    136      1     51     17       60.00           60.00    
    137      1      1     18       100.0           100.0    
    138      1     51     18       60.00           60.00    
    139      1      1     19       100.0           100.0    
    140      1     51     19       60.00           60.00    
    141      1      1     20       100.0           100.0    
    142      1     51     20       60.00           60.00    
    143      1      1     21       100.0           100.0    
    144      1     51     21       60.00           60.00    
    145      1      1     22       100.0           100.0    
    146      1     51     22       60.00           60.00    
    147      1      1     23       100.0           100.0    
    148      1     51     23       60.00           60.00    
    149      1      1     24       100.0           100.0    
    150      1     51     24       60.00           60.00    
    151      1      1     25       100.0           100.0    
    152      1     51     25       60.00           60.00    
    153      1      1     26       100.0           100.0    
    154      1     51     26       60.00           60.00    
    155      1      1     27       100.0           100.0    
    156      1     51     27       60.00           60.00    
    157      1      1     28       100.0           100.0    
    158      1     51     28       60.00           60.00    
    159      1      1     29       100.0           100.0    
    160      1     51     29       60.00           60.00    
    161      1      1     30       100.0           100.0    
    162      1     51     30       60.00           60.00    
    163      1      1     31       100.0           100.0    
    164      1     51     31       60.00           60.00    
    165      1      1     32       100.0           100.0    
    166      1     51     32       60.00           60.00    
    167      1      1     33       100.0           100.0    
    168      1     51     33       60.00           60.00    
    169      1      1     34       100.0           100.0    
    170      1     51     34       60.00           60.00    
    171      1      1     35       100.0           100.0    
    172      1     51     35       60.00           60.00    
    173      1      1     36       100.0           100.0    
    174      1     51     36       60.00           60.00    
    175      1      1     37       100.0           100.0    
    176      1     51     37       60.00           60.00    
    177      1      1     38       100.0           100.0    
    178      1     51     38       60.00           60.00    
    179      1      1     39       100.0           100.0    
    180      1     51     39       60.00           60.00    
    181      1      1     40       100.0           100.0    
    182      1     51     40       60.00           60.00    
    183      1      1     41       100.0           100.0    
    184      1     51     41       60.00           60.00    
    185      1      1     42       100.0           100.0    
    186      1     51     42       60.00           60.00    
    187      1      1     43       100.0           100.0    
    188      1     51     43       60.00           60.00    
    189      1      1     44       100.0           100.0    
    190      1     51     44       60.00           60.00    
    191      1      1     45       100.0           100.0    
    192      1     51     45       60.00           60.00    
    193      1      1     46       100.0           100.0    
    194      1     51     46       60.00           60.00    
    195      1      1     47       100.0           100.0    
    196      1     51     47       60.00           60.00    
    197      1      1     48       100.0           100.0    
    198      1     51     48       60.00           60.00    
    199      1      1     49       100.0           100.0    
    200      1     51     49       60.00           60.00    
    201      1      1     50       100.0           100.0    
    202      1     51     50       60.00           60.00    
    203      1      1     51       100.0           100.0    
    204      1     51     51       60.00           60.00    


    204 TIME-VARIANT SPECIFIED-HEAD CELLS
 
 SOLVING FOR HEAD 

 OUTPUT CONTROL FOR STRESS PERIOD    1   TIME STEP   1
    PRINT HEAD FOR ALL LAYERS
    PRINT BUDGET
    SAVE HEAD FOR ALL LAYERS
    SAVE BUDGET
 UBDSV2 SAVING "   CONSTANT HEAD" ON UNIT  53 AT TIME STEP  1, STRESS PERIOD   1
 UBDSV1 SAVING "FLOW RIGHT FACE " ON UNIT  53 AT TIME STEP  1, STRESS PERIOD   1
 UBDSV1 SAVING "FLOW FRONT FACE " ON UNIT  53 AT TIME STEP  1, STRESS PERIOD   1
 UBDSV4 SAVING "           WELLS" ON UNIT  53 AT TIME STEP  1, STRESS PERIOD   1
1
              HEAD IN LAYER   1 AT END OF TIME STEP   1 IN STRESS PERIOD    1
  ---------------------------------------------------------------------------

            1           2           3           4           5           6           7           8           9          10
           11          12          13          14          15          16          17          18          19          20
           21          22          23          24          25          26          27          28          29          30
           31          32          33          34          35          36          37          38          39          40
           41          42          43          44          45          46          47          48          49          50
           51
 ........................................................................................................................
   1    200.0       100.0       100.0       100.0       100.0       100.0       100.0       100.0       100.0       100.0    
        100.0       100.0       100.0       100.0       100.0       100.0       100.0       100.0       100.0       100.0    
        100.0       100.0       100.0       100.0       100.0       100.0       100.0       100.0       100.0       100.0    
        100.0       100.0       100.0       100.0       100.0       100.0       100.0       100.0       100.0       100.0    
        100.0       100.0       100.0       100.0       100.0       100.0       100.0       100.0       100.0       100.0    
        200.0    
   2    99.20       98.99       98.79       98.57       98.35       98.13       97.89       97.64       97.39       97.12    
        96.86       96.70       96.66       96.64       96.64       96.67       96.72       96.80       96.91       97.02    
        97.15       97.28       97.40       97.53       97.65       97.76       97.88       97.99       98.10       98.21    
        98.32       98.43       98.55       98.62       98.65       98.68       98.71       98.74       98.77       98.79    
        98.82       98.86       98.89       98.92       98.96       99.00       99.04       99.08       99.12       99.16    
        99.20    
   3    98.40       97.99       97.58       97.15       96.72       96.26       95.79       95.29       94.78       94.25    
        93.71       93.39       93.31       93.26       93.25       93.30       93.41       93.58       93.80       94.04    
        94.29       94.55       94.81       95.06       95.30       95.53       95.76       95.98       96.20       96.42    
        96.64       96.86       97.10       97.24       97.29       97.35       97.42       97.48       97.53       97.59    
        97.64       97.71       97.78       97.85       97.92       98.00       98.08       98.16       98.24       98.32    
        98.40    
   4    97.60       96.99       96.38       95.75       95.10       94.42       93.71       92.97       92.19       91.38    
        90.55       90.06       89.93       89.83       89.81       89.88       90.05       90.32       90.66       91.04    
        91.44       91.84       92.22       92.60       92.96       93.30       93.64       93.97       94.29       94.62    
        94.95       95.29       95.64       95.85       95.93       96.02       96.12       96.21       96.29       96.37    
        96.46       96.56       96.66       96.77       96.88       96.99       97.11       97.23       97.35       97.48    
        97.60    
   5    96.80       96.00       95.19       94.36       93.50       92.61       91.66       90.67       89.62       88.53    
        87.39       86.70       86.50       86.34       86.27       86.35       86.60       86.99       87.48       88.02    
        88.58       89.13       89.65       90.16       90.63       91.09       91.53       91.96       92.39       92.82    
        93.26       93.71       94.17       94.46       94.56       94.69       94.82       94.94       95.04       95.15    
        95.27       95.40       95.54       95.68       95.83       95.99       96.15       96.31       96.47       96.63    
        96.80    
   6    96.00       95.02       94.02       93.00       91.95       90.84       89.67       88.43       87.11       85.71    
        84.24       83.33       83.02       82.74       82.59       82.66       82.99       83.55       84.24       84.98    
        85.73       86.44       87.11       87.74       88.33       88.88       89.42       89.95       90.48       91.01    
        91.55       92.11       92.69       93.04       93.18       93.33       93.50       93.65       93.78       93.92    
        94.08       94.24       94.41       94.59       94.78       94.98       95.18       95.38       95.59       95.79    
        96.00    
   7    95.20       94.05       92.88       91.68       90.44       89.14       87.75       86.27       84.68       82.97    
        81.13       79.96       79.50       79.03       78.70       78.70       79.17       79.98       80.95       81.95    
        82.91       83.80       84.61       85.36       86.05       86.70       87.33       87.95       88.57       89.19    
        89.84       90.50       91.19       91.62       91.78       91.97       92.17       92.35       92.51       92.68    
        92.87       93.07       93.28       93.50       93.73       93.96       94.20       94.45       94.70       94.95    
        95.20    
   8    94.40       93.09       91.77       90.41       89.00       87.51       85.93       84.22       82.37       80.35    
        78.12       76.66       75.98       75.18       74.48       74.27       75.00       76.25       77.64       78.96    
        80.16       81.23       82.17       83.03       83.81       84.55       85.25       85.95       86.64       87.36    
        88.09       88.86       89.66       90.16       90.36       90.58       90.82       91.04       91.22       91.43    
        91.65       91.88       92.13       92.39       92.66       92.94       93.23       93.52       93.81       94.11    
        94.40    
   9    93.60       92.16       90.69       89.19       87.63       85.98       84.22       82.32       80.24       77.93    
        75.33       73.56       72.58       71.23       69.76       68.90       70.32       72.39       74.38       76.10    
        77.55       78.77       79.83       80.77       81.62       82.42       83.18       83.94       84.71       85.50    
        86.32       87.19       88.11       88.68       88.91       89.17       89.45       89.70       89.92       90.15    
        90.41       90.68       90.97       91.28       91.59       91.92       92.25       92.58       92.92       93.26    
        93.60    
  10    92.80       91.24       89.65       88.03       86.34       84.56       82.66       80.60       78.34       75.80    
        72.90       70.85       69.53       67.42       64.41       61.26       64.99       68.61       71.39       73.50    
        75.15       76.49       77.62       78.60       79.49       80.32       81.13       81.93       82.75       83.60    
        84.51       85.48       86.51       87.17       87.43       87.73       88.06       88.35       88.59       88.86    
        89.15       89.46       89.80       90.15       90.51       90.88       91.26       91.65       92.03       92.42    
        92.80    
  11    92.00       90.34       88.66       86.93       85.15       83.26       81.26       79.09       76.70       74.04    
        70.97       68.79       67.27       64.52       59.21       46.74       59.77       65.66       69.07       71.36    
        73.07       74.42       75.54       76.52       77.41       78.25       79.07       79.90       80.75       81.65    
        82.63       83.69       84.86       85.61       85.92       86.26       86.64       86.97       87.25       87.55    
        87.87       88.23       88.61       89.01       89.42       89.85       90.28       90.71       91.14       91.57    
        92.00    
  12    91.20       89.46       87.71       85.91       84.04       82.09       80.01       77.79       75.35       72.66    
        69.63       67.52       66.23       64.17       61.19       58.03       61.70       65.20       67.85       69.82    
        71.34       72.57       73.61       74.54       75.39       76.20       77.01       77.84       78.70       79.63    
        80.66       81.81       83.12       83.99       84.36       84.77       85.20       85.57       85.87       86.20    
        86.57       86.97       87.40       87.85       88.32       88.80       89.29       89.77       90.25       90.72    
        91.20    
  13    90.40       88.61       86.79       84.94       83.03       81.03       78.93       76.69       74.27       71.63    
        68.75       66.85       65.95       64.73       63.35       62.50       63.78       65.61       67.30       68.73    
        69.91       70.92       71.80       72.62       73.39       74.16       74.93       75.73       76.59       77.52    
        78.56       79.77       81.23       82.30       82.76       83.25       83.74       84.14       84.47       84.83    
        85.23       85.67       86.16       86.68       87.22       87.76       88.30       88.83       89.36       89.88    
        90.40    
  14    89.60       87.77       85.92       84.04       82.10       80.09       77.98       75.76       73.39       70.86    
        68.15       66.46       65.98       65.46       64.99       64.83       65.33       66.15       67.03       67.87    
        68.65       69.38       70.07       70.74       71.42       72.11       72.82       73.58       74.40       75.29    
        76.30       77.48       79.02       80.52       81.13       81.72       82.27       82.70       83.04       83.41    
        83.84       84.34       84.90       85.49       86.10       86.71       87.31       87.90       88.48       89.04    
        89.60    
  15    88.80       86.95       85.08       83.19       81.24       79.24       77.16       74.98       72.68       70.25    
        67.66       66.18       66.02       65.87       65.78       65.83       66.06       66.43       66.89       67.40    
        67.93       68.47       69.03       69.61       70.22       70.86       71.53       72.26       73.04       73.89    
        74.83       75.89       77.12       78.61       79.53       80.23       80.82       81.26       81.58       81.94    
        82.38       82.94       83.60       84.29       84.99       85.68       86.34       86.98       87.60       88.21    
        88.80    
  16    88.00       86.14       84.27       82.38       80.45       78.47       76.43       74.31       72.11       69.81    
        67.41       66.13       66.02       65.94       65.91       65.98       66.16       66.44       66.80       67.22    
        67.67       68.16       68.67       69.21       69.79       70.40       71.06       71.76       72.52       73.33    
        74.22       75.18       76.22       77.29       78.15       78.84       79.42       79.82       80.09       80.38    
        80.80       81.46       82.25       83.08       83.89       84.66       85.39       86.09       86.74       87.38    
        88.00    
  17    87.20       85.35       83.49       81.61       79.71       77.76       75.78       73.74       71.63       69.47    
        67.25       66.08       66.01       65.95       65.95       66.01       66.15       66.37       66.66       67.00    
        67.39       67.81       68.28       68.78       69.32       69.90       70.53       71.21       71.93       72.71    
        73.54       74.40       75.30       76.17       76.93       77.57       78.09       78.42       78.58       78.70    
        78.98       79.84       80.87       81.89       82.83       83.69       84.49       85.22       85.91       86.56    
        87.20    
  18    86.40       84.56       82.72       80.87       79.00       77.10       75.18       73.22       71.22       69.18    
        67.11       66.03       65.96       65.92       65.92       65.96       66.07       66.24       66.46       66.74    
        67.06       67.43       67.84       68.30       68.81       69.36       69.96       70.61       71.30       72.04    
        72.81       73.60       74.40       75.16       75.84       76.43       76.88       77.12       77.10       76.85    
        76.58       78.06       79.52       80.77       81.84       82.79       83.64       84.40       85.11       85.77    
        86.40    
  19    85.60       83.78       81.96       80.14       78.31       76.47       74.62       72.74       70.84       68.91    
        66.97       65.96       65.90       65.85       65.84       65.86       65.93       66.05       66.21       66.43    
        66.69       67.00       67.37       67.78       68.25       68.77       69.34       69.96       70.63       71.33    
        72.06       72.80       73.53       74.22       74.86       75.40       75.83       76.03       75.85       75.03    
        72.44       76.28       78.36       79.82       80.99       81.99       82.86       83.65       84.36       85.00    
        85.60    
  20    84.80       83.00       81.21       79.42       77.64       75.86       74.08       72.29       70.48       68.66    
        66.83       65.88       65.81       65.75       65.72       65.71       65.74       65.80       65.91       66.07    
        66.27       66.53       66.84       67.21       67.64       68.13       68.67       69.27       69.92       70.59    
        71.29       72.00       72.69       73.35       73.96       74.50       74.96       75.26       75.25       74.98    
        74.70       76.27       77.83       79.17       80.31       81.31       82.18       82.97       83.67       84.29    
        84.80    
  21    84.00       82.22       80.44       78.69       76.97       75.25       73.55       71.85       70.15       68.43    
        66.69       65.78       65.71       65.64       65.57       65.52       65.51       65.52       65.57       65.66    
        65.80       66.00       66.25       66.57       66.96       67.42       67.95       68.54       69.17       69.84    
        70.52       71.21       71.89       72.54       73.14       73.69       74.17       74.57       74.79       74.93    
        75.25       76.24       77.43       78.58       79.62       80.57       81.42       82.19       82.88       83.50    
        84.00    
  22    83.20       81.42       79.66       77.95       76.27       74.63       73.02       71.42       69.82       68.21    
        66.57       65.70       65.61       65.51       65.40       65.31       65.24       65.20       65.18       65.21    
        65.28       65.40       65.60       65.87       66.22       66.66       67.17       67.76       68.39       69.06    
        69.75       70.43       71.11       71.76       72.37       72.94       73.46       73.92       74.31       74.70    
        75.23       76.03       76.97       77.94       78.88       79.76       80.57       81.32       82.00       82.62    
        83.20    
  23    82.40       80.59       78.84       77.16       75.55       73.99       72.48       70.99       69.51       68.01    
        66.47       65.64       65.52       65.38       65.23       65.08       64.95       64.84       64.76       64.71    
        64.70       64.75       64.87       65.08       65.39       65.81       66.33       66.93       67.58       68.27    
        68.97       69.67       70.36       71.02       71.65       72.25       72.80       73.32       73.82       74.34    
        74.94       75.67       76.49       77.35       78.19       79.01       79.78       80.50       81.17       81.80    
        82.40    
  24    81.60       79.70       77.94       76.30       74.76       73.30       71.91       70.55       69.22       67.87    
        66.44       65.62       65.46       65.26       65.05       64.84       64.64       64.46       64.30       64.16    
        64.06       64.02       64.05       64.19       64.46       64.87       65.40       66.04       66.73       67.46    
        68.19       68.92       69.63       70.32       70.97       71.59       72.18       72.75       73.31       73.89    
        74.52       75.22       75.98       76.76       77.54       78.30       79.04       79.73       80.39       81.01    
        81.60    
  25    80.80       78.68       76.92       75.34       73.90       72.56       71.29       70.09       68.93       67.79    
        66.57       65.71       65.45       65.15       64.86       64.58       64.31       64.06       63.81       63.58    
        63.37       63.21       63.12       63.16       63.38       63.80       64.38       65.09       65.85       66.64    
        67.43       68.19       68.93       69.64       70.32       70.97       71.59       72.19       72.79       73.40    
        74.04       74.72       75.43       76.17       76.90       77.63       78.33       79.01       79.65       80.25    
        80.80    
  26    80.00       77.97       76.27       74.77       73.40       72.12       70.94       69.82       68.78       67.80    
        66.88       66.02       65.47       65.03       64.64       64.28       63.93       63.59       63.25       62.90    
        62.55       62.21       61.94       61.82       61.94       62.40       63.11       63.95       64.84       65.72    
        66.58       67.40       68.18       68.92       69.62       70.29       70.94       71.56       72.18       72.81    
        73.45       74.12       74.80       75.50       76.20       76.89       77.57       78.23       78.86       79.45    
        80.00    
  27    79.20       77.56       76.02       74.59       73.25       72.00       70.83       69.73       68.70       67.74    
        66.85       66.05       65.39       64.83       64.36       63.93       63.51       63.08       62.63       62.14    
        61.61       61.04       60.49       60.06       60.01       60.60       61.56       62.64       63.71       64.73    
        65.68       66.56       67.39       68.16       68.88       69.57       70.23       70.87       71.50       72.13    
        72.77       73.42       74.08       74.75       75.42       76.09       76.75       77.39       78.01       78.62    
        79.20    
  28    78.40       77.06       75.67       74.31       73.01       71.79       70.64       69.56       68.55       67.61    
        66.73       65.93       65.21       64.56       64.04       63.56       63.09       62.59       62.05       61.43    
        60.71       59.87       58.90       57.94       57.44       58.43       59.88       61.33       62.64       63.81    
        64.85       65.79       66.64       67.44       68.18       68.87       69.54       70.19       70.82       71.45    
        72.08       72.72       73.36       74.01       74.65       75.30       75.94       76.57       77.19       77.80    
        78.40    
  29    77.60       76.38       75.08       73.79       72.55       71.37       70.26       69.22       68.24       67.31    
        66.45       65.63       64.83       64.15       63.68       63.20       62.70       62.15       61.54       60.82    
        59.94       58.81       57.31       55.35       53.39       55.80       58.22       60.16       61.71       63.01    
        64.12       65.09       65.97       66.77       67.51       68.21       68.88       69.52       70.15       70.77    
        71.39       72.01       72.63       73.26       73.89       74.51       75.14       75.76       76.38       76.99    
        77.60    
  30    76.80       75.55       74.29       73.06       71.87       70.75       69.69       68.69       67.75       66.87    
        66.03       65.22       64.41       63.78       63.33       62.85       62.34       61.78       61.14       60.37    
        59.41       58.12       56.18       52.76       44.95       53.18       57.02       59.36       61.05       62.39    
        63.52       64.49       65.36       66.16       66.89       67.58       68.23       68.87       69.48       70.09    
        70.70       71.30       71.90       72.51       73.12       73.73       74.34       74.96       75.57       76.18    
        76.80    
  31    76.00       74.72       73.48       72.28       71.14       70.06       69.05       68.10       67.21       66.37    
        65.57       64.80       64.02       63.43       63.00       62.54       62.04       61.49       60.86       60.12    
        59.22       58.06       56.54       54.55       52.56       54.94       57.32       59.23       60.75       62.00    
        63.07       64.00       64.84       65.60       66.31       66.98       67.62       68.23       68.83       69.42    
        70.00       70.59       71.17       71.76       72.35       72.94       73.54       74.15       74.76       75.38    
        76.00    
  32    75.20       73.87       72.61       71.43       70.33       69.31       68.35       67.46       66.62       65.84    
        65.09       64.37       63.66       63.11       62.71       62.26       61.79       61.27       60.69       60.04    
        59.28       58.38       57.37       56.35       55.79       56.72       58.10       59.47       60.70       61.79    
        62.75       63.61       64.39       65.11       65.78       66.41       67.02       67.61       68.18       68.75    
        69.31       69.87       70.43       71.00       71.57       72.15       72.74       73.34       73.95       74.57    
        75.20    
  33    74.40       72.96       71.67       70.51       69.45       68.48       67.59       66.76       65.99       65.27    
        64.59       63.94       63.32       62.84       62.45       62.03       61.58       61.11       60.61       60.06    
        59.46       58.83       58.19       57.68       57.54       58.03       58.88       59.85       60.81       61.71    
        62.53       63.29       64.00       64.65       65.28       65.87       66.44       67.00       67.54       68.08    
        68.62       69.16       69.69       70.24       70.79       71.35       71.92       72.51       73.12       73.75    
        74.40    
  34    73.60       72.15       70.88       69.74       68.73       67.80       66.96       66.19       65.47       64.80    
        64.18       63.61       63.08       62.63       62.22       61.81       61.40       60.98       60.56       60.13    
        59.69       59.27       58.90       58.65       58.66       58.99       59.55       60.25       60.97       61.69    
        62.38       63.03       63.65       64.24       64.81       65.35       65.88       66.40       66.91       67.42    
        67.93       68.44       68.95       69.47       70.00       70.54       71.09       71.67       72.28       72.92    
        73.60    
  35    72.80       71.43       70.20       69.12       68.15       67.27       66.48       65.75       65.08       64.45    
        63.87       63.33       62.84       62.40       61.98       61.59       61.22       60.86       60.52       60.20    
        59.91       59.66       59.47       59.38       59.45       59.70       60.10       60.60       61.15       61.71    
        62.26       62.81       63.34       63.85       64.35       64.84       65.33       65.81       66.28       66.76    
        67.23       67.71       68.20       68.69       69.19       69.71       70.24       70.80       71.40       72.06    
        72.80    
  36    72.00       70.57       69.39       68.37       67.47       66.66       65.93       65.25       64.63       64.05    
        63.52       63.02       62.55       62.12       61.73       61.36       61.03       60.73       60.47       60.25    
        60.09       59.98       59.93       59.95       60.06       60.26       60.56       60.91       61.31       61.73    
        62.16       62.60       63.04       63.48       63.91       64.35       64.78       65.22       65.66       66.10    
        66.54       66.99       67.44       67.90       68.37       68.86       69.36       69.89       70.46       71.12    
        72.00    
  37    71.20       69.87       68.77       67.83       66.99       66.23       65.54       64.91       64.32       63.78    
        63.27       62.79       62.35       61.93       61.55       61.20       60.88       60.61       60.40       60.25    
        60.17       60.14       60.17       60.24       60.37       60.55       60.79       61.07       61.39       61.73    
        62.10       62.47       62.86       63.25       63.65       64.05       64.45       64.86       65.28       65.70    
        66.12       66.55       66.98       67.42       67.88       68.34       68.81       69.31       69.84       70.43    
        71.20    
  38    70.40       69.34       68.37       67.49       66.70       65.98       65.32       64.72       64.15       63.62    
        63.13       62.66       62.23       61.82       61.44       61.09       60.78       60.51       60.31       60.19    
        60.15       60.15       60.19       60.28       60.41       60.59       60.82       61.09       61.39       61.72    
        62.06       62.42       62.79       63.17       63.56       63.95       64.34       64.74       65.15       65.56    
        65.97       66.39       66.82       67.26       67.70       68.15       68.61       69.09       69.57       70.03    
        70.40    
  39    69.60       68.71       67.86       67.07       66.35       65.68       65.06       64.48       63.94       63.44    
        62.96       62.51       62.09       61.68       61.30       60.94       60.62       60.35       60.15       60.05    
        60.04       60.08       60.15       60.26       60.41       60.59       60.81       61.06       61.33       61.64    
        61.95       62.29       62.63       62.98       63.34       63.71       64.09       64.47       64.85       65.25    
        65.65       66.05       66.46       66.87       67.29       67.72       68.15       68.58       69.00       69.38    
        69.60    
  40    68.80       68.04       67.29       66.59       65.93       65.32       64.74       64.20       63.70       63.22    
        62.77       62.33       61.92       61.52       61.13       60.76       60.41       60.11       59.89       59.80    
        59.84       59.93       60.06       60.20       60.36       60.54       60.75       60.98       61.23       61.49    
        61.78       62.07       62.38       62.69       63.01       63.34       63.68       64.03       64.39       64.76    
        65.14       65.51       65.90       66.28       66.67       67.06       67.44       67.82       68.19       68.52    
        68.80    
  41    68.00       67.34       66.69       66.07       65.48       64.92       64.39       63.90       63.43       62.98    
        62.55       62.14       61.74       61.35       60.95       60.56       60.16       59.78       59.49       59.46    
        59.58       59.76       59.94       60.12       60.29       60.48       60.67       60.88       61.10       61.34    
        61.59       61.84       62.11       62.39       62.67       62.97       63.27       63.59       63.92       64.27    
        64.62       64.98       65.33       65.69       66.04       66.39       66.74       67.08       67.41       67.71    
        68.00    
  42    67.20       66.63       66.06       65.51       64.99       64.49       64.01       63.56       63.13       62.72    
        62.32       61.93       61.55       61.17       60.78       60.36       59.89       59.36       58.84       59.02    
        59.30       59.60       59.84       60.04       60.22       60.40       60.58       60.77       60.96       61.17    
        61.38       61.61       61.84       62.08       62.32       62.58       62.85       63.13       63.44       63.77    
        64.11       64.44       64.77       65.09       65.41       65.73       66.04       66.35       66.64       66.93    
        67.20    
  43    66.40       65.90       65.42       64.94       64.48       64.03       63.61       63.21       62.82       62.44    
        62.08       61.72       61.37       61.01       60.63       60.20       59.69       58.94       57.49       58.59    
        59.11       59.50       59.77       59.97       60.15       60.32       60.48       60.65       60.82       60.99    
        61.17       61.36       61.56       61.76       61.97       62.18       62.41       62.66       62.93       63.27    
        63.59       63.91       64.21       64.50       64.79       65.08       65.35       65.62       65.89       66.15    
        66.40    
  44    65.60       65.18       64.76       64.35       63.95       63.56       63.19       62.83       62.49       62.16    
        61.83       61.51       61.19       60.86       60.52       60.14       59.72       59.22       58.73       58.95    
        59.25       59.53       59.75       59.94       60.10       60.25       60.40       60.55       60.69       60.84    
        61.00       61.16       61.32       61.49       61.67       61.86       62.05       62.25       62.47       62.78    
        63.09       63.38       63.66       63.92       64.18       64.43       64.67       64.91       65.14       65.37    
        65.60    
  45    64.80       64.44       64.09       63.74       63.40       63.07       62.75       62.45       62.15       61.86    
        61.58       61.30       61.02       60.73       60.44       60.13       59.81       59.50       59.27       59.29    
        59.43       59.61       59.78       59.94       60.08       60.21       60.34       60.47       60.60       60.73    
        60.86       61.00       61.14       61.29       61.44       61.60       61.77       61.94       62.11       62.35    
        62.62       62.87       63.11       63.34       63.57       63.78       63.99       64.20       64.40       64.60    
        64.80    
  46    64.00       63.71       63.41       63.13       62.85       62.57       62.31       62.05       61.80       61.56    
        61.32       61.08       60.85       60.61       60.37       60.13       59.90       59.69       59.56       59.53    
        59.59       59.71       59.83       59.95       60.06       60.18       60.28       60.39       60.50       60.61    
        60.73       60.84       60.96       61.08       61.21       61.34       61.48       61.62       61.76       61.94    
        62.17       62.38       62.58       62.77       62.96       63.14       63.32       63.49       63.66       63.83    
        64.00    
  47    63.20       62.97       62.74       62.51       62.29       62.07       61.86       61.65       61.45       61.25    
        61.06       60.87       60.68       60.50       60.31       60.13       59.96       59.82       59.73       59.70    
        59.73       59.79       59.87       59.96       60.05       60.14       60.23       60.32       60.40       60.49    
        60.58       60.68       60.77       60.87       60.97       61.08       61.18       61.29       61.40       61.55    
        61.72       61.89       62.06       62.21       62.36       62.51       62.65       62.79       62.93       63.07    
        63.20    
  48    62.40       62.23       62.05       61.89       61.72       61.56       61.40       61.24       61.09       60.94    
        60.80       60.66       60.51       60.38       60.24       60.11       60.00       59.90       59.84       59.81    
        59.82       59.86       59.92       59.98       60.04       60.11       60.17       60.24       60.30       60.37    
        60.44       60.51       60.58       60.66       60.73       60.81       60.89       60.97       61.05       61.16    
        61.29       61.42       61.54       61.65       61.77       61.88       61.99       62.09       62.20       62.30    
        62.40    
  49    61.60       61.49       61.37       61.26       61.15       61.04       60.93       60.83       60.73       60.63    
        60.53       60.44       60.34       60.25       60.17       60.08       60.01       59.95       59.91       59.89    
        59.90       59.92       59.95       59.99       60.03       60.07       60.11       60.16       60.20       60.25    
        60.29       60.34       60.39       60.44       60.49       60.54       60.59       60.65       60.70       60.77    
        60.86       60.94       61.02       61.10       61.18       61.25       61.32       61.39       61.46       61.53    
        61.60    
  50    60.80       60.74       60.69       60.63       60.57       60.52       60.47       60.42       60.36       60.32    
        60.27       60.22       60.17       60.13       60.08       60.04       60.01       59.98       59.96       59.95    
        59.95       59.96       59.98       59.99       60.01       60.04       60.06       60.08       60.10       60.12    
        60.15       60.17       60.19       60.22       60.24       60.27       60.30       60.32       60.35       60.39    
        60.43       60.47       60.51       60.55       60.59       60.63       60.66       60.70       60.73       60.77    
        60.80    
  51    120.0       60.00       60.00       60.00       60.00       60.00       60.00       60.00       60.00       60.00    
        60.00       60.00       60.00       60.00       60.00       60.00       60.00       60.00       60.00       60.00    
        60.00       60.00       60.00       60.00       60.00       60.00       60.00       60.00       60.00       60.00    
        60.00       60.00       60.00       60.00       60.00       60.00       60.00       60.00       60.00       60.00    
        60.00       60.00       60.00       60.00       60.00       60.00       60.00       60.00       60.00       60.00    
        120.0    

 HEAD WILL BE SAVED ON UNIT   51 AT END OF TIME STEP   1, STRESS PERIOD    1
1
  VOLUMETRIC BUDGET FOR ENTIRE MODEL AT END OF TIME STEP  1 IN STRESS PERIOD   1
  ------------------------------------------------------------------------------

     CUMULATIVE VOLUMES      L**3       RATES FOR THIS TIME STEP      L**3/T
     ------------------                 ------------------------

           IN:                                      IN:
           ---                                      ---
             STORAGE =           0.0000               STORAGE =           0.0000
       CONSTANT HEAD =   139354976.0000         CONSTANT HEAD =      381533.1250
               WELLS =           0.0000                 WELLS =           0.0000

            TOTAL IN =   139354976.0000              TOTAL IN =      381533.1250

          OUT:                                     OUT:
          ----                                     ----
             STORAGE =           0.0000               STORAGE =           0.0000
       CONSTANT HEAD =    40920104.0000         CONSTANT HEAD =      112033.1410
               WELLS =    98434872.0000                 WELLS =      269500.0000

           TOTAL OUT =   139354976.0000             TOTAL OUT =      381533.1250

            IN - OUT =           0.0000              IN - OUT =      -1.5625E-02

 PERCENT DISCREPANCY =           0.00     PERCENT DISCREPANCY =           0.00






          TIME SUMMARY AT END OF TIME STEP   1 IN STRESS PERIOD    1
                    SECONDS     MINUTES      HOURS       DAYS        YEARS
                    -----------------------------------------------------------
   TIME STEP LENGTH 3.15576E+07 5.25960E+05  8766.0      365.25      1.0000    
 STRESS PERIOD TIME 3.15576E+07 5.25960E+05  8766.0      365.25      1.0000    
         TOTAL TIME 3.15576E+07 5.25960E+05  8766.0      365.25      1.0000    
1
1
                            STRESS PERIOD NO.    2, LENGTH =   365.2500    
                            -----------------------------------------------

                              NUMBER OF TIME STEPS =     1

                               MULTIPLIER FOR DELT =     1.000

                            INITIAL TIME STEP SIZE =   365.2500    

 WELL NO.  LAYER   ROW   COL   STRESS RATE         
 --------------------------------------------------
      1      1     11     16     -0.3850E+05
      2      1     19     41     -0.7700E+05
      3      1     30     25     -0.9625E+05
      4      1     43     19     -0.5775E+05

      4 WELLS

 REUSING NON-PARAMETER SPECIFIED-HEAD DATA FROM LAST STRESS PERIOD


    204 TIME-VARIANT SPECIFIED-HEAD CELLS
 
 SOLVING FOR HEAD 

 OUTPUT CONTROL FOR STRESS PERIOD    2   TIME STEP   1
    PRINT HEAD FOR ALL LAYERS
    PRINT BUDGET
    SAVE HEAD FOR ALL LAYERS
    SAVE BUDGET
 UBDSV2 SAVING "   CONSTANT HEAD" ON UNIT  53 AT TIME STEP  1, STRESS PERIOD   2
 UBDSV1 SAVING "FLOW RIGHT FACE " ON UNIT  53 AT TIME STEP  1, STRESS PERIOD   2
 UBDSV1 SAVING "FLOW FRONT FACE " ON UNIT  53 AT TIME STEP  1, STRESS PERIOD   2
 UBDSV4 SAVING "           WELLS" ON UNIT  53 AT TIME STEP  1, STRESS PERIOD   2
1
              HEAD IN LAYER   1 AT END OF TIME STEP   1 IN STRESS PERIOD    2
  ---------------------------------------------------------------------------

            1           2           3           4           5           6           7           8           9          10
           11          12          13          14          15          16          17          18          19          20
           21          22          23          24          25          26          27          28          29          30
           31          32          33          34          35          36          37          38          39          40
           41          42          43          44          45          46          47          48          49          50
           51
 ........................................................................................................................
   1    200.0       100.0       100.0       100.0       100.0       100.0       100.0       100.0       100.0       100.0    
        100.0       100.0       100.0       100.0       100.0       100.0       100.0       100.0       100.0       100.0    
        100.0       100.0       100.0       100.0       100.0       100.0       100.0       100.0       100.0       100.0    
        100.0       100.0       100.0       100.0       100.0       100.0       100.0       100.0       100.0       100.0    
        100.0       100.0       100.0       100.0       100.0       100.0       100.0       100.0       100.0       100.0    
        200.0    
   2    99.20       98.99       98.79       98.57       98.35       98.13       97.89       97.64       97.39       97.12    
        96.86       96.70       96.66       96.64       96.64       96.67       96.72       96.80       96.91       97.02    
        97.15       97.28       97.40       97.53       97.65       97.76       97.88       97.99       98.10       98.21    
        98.32       98.43       98.55       98.62       98.65       98.68       98.71       98.74       98.77       98.79    
        98.82       98.86       98.89       98.92       98.96       99.00       99.04       99.08       99.12       99.16    
        99.20    
   3    98.40       97.99       97.58       97.15       96.72       96.26       95.79       95.29       94.78       94.25    
        93.71       93.39       93.31       93.26       93.25       93.30       93.41       93.58       93.80       94.04    
        94.29       94.55       94.81       95.06       95.30       95.53       95.76       95.98       96.20       96.42    
        96.64       96.86       97.10       97.24       97.29       97.35       97.42       97.48       97.53       97.59    
        97.64       97.71       97.78       97.85       97.92       98.00       98.08       98.16       98.24       98.32    
        98.40    
   4    97.60       96.99       96.38       95.75       95.10       94.42       93.71       92.97       92.19       91.38    
        90.55       90.06       89.93       89.83       89.81       89.88       90.05       90.32       90.66       91.04    
        91.44       91.84       92.22       92.60       92.96       93.30       93.64       93.97       94.29       94.62    
        94.95       95.29       95.64       95.85       95.93       96.02       96.12       96.21       96.29       96.37    
        96.46       96.56       96.66       96.77       96.88       96.99       97.11       97.23       97.35       97.48    
        97.60    
   5    96.80       96.00       95.19       94.36       93.50       92.61       91.66       90.67       89.62       88.53    
        87.39       86.70       86.50       86.34       86.27       86.35       86.60       86.99       87.48       88.02    
        88.58       89.13       89.65       90.16       90.63       91.09       91.53       91.96       92.39       92.82    
        93.26       93.71       94.17       94.46       94.56       94.69       94.82       94.94       95.04       95.15    
        95.27       95.40       95.54       95.68       95.83       95.99       96.15       96.31       96.47       96.63    
        96.80    
   6    96.00       95.02       94.02       93.00       91.95       90.84       89.67       88.43       87.11       85.71    
        84.24       83.33       83.02       82.74       82.59       82.66       82.99       83.55       84.24       84.98    
        85.73       86.44       87.11       87.74       88.33       88.88       89.42       89.95       90.48       91.01    
        91.55       92.11       92.69       93.04       93.18       93.33       93.50       93.65       93.78       93.92    
        94.08       94.24       94.41       94.59       94.78       94.98       95.18       95.38       95.59       95.79    
        96.00    
   7    95.20       94.05       92.88       91.68       90.44       89.14       87.75       86.27       84.68       82.97    
        81.13       79.96       79.50       79.03       78.70       78.70       79.17       79.98       80.95       81.95    
        82.91       83.80       84.61       85.36       86.05       86.70       87.33       87.95       88.57       89.19    
        89.84       90.50       91.19       91.62       91.78       91.97       92.17       92.35       92.51       92.68    
        92.87       93.07       93.28       93.50       93.73       93.96       94.20       94.45       94.70       94.95    
        95.20    
   8    94.40       93.09       91.77       90.41       89.00       87.51       85.93       84.22       82.37       80.35    
        78.12       76.66       75.98       75.18       74.48       74.27       75.00       76.25       77.64       78.96    
        80.16       81.23       82.17       83.03       83.81       84.55       85.25       85.95       86.64       87.36    
        88.09       88.86       89.66       90.16       90.36       90.58       90.82       91.04       91.22       91.43    
        91.65       91.88       92.13       92.39       92.66       92.94       93.23       93.52       93.81       94.11    
        94.40    
   9    93.60       92.16       90.69       89.19       87.63       85.98       84.22       82.32       80.24       77.93    
        75.33       73.56       72.58       71.23       69.76       68.90       70.32       72.39       74.38       76.10    
        77.55       78.77       79.83       80.77       81.62       82.42       83.18       83.94       84.71       85.50    
        86.32       87.19       88.11       88.68       88.91       89.17       89.45       89.70       89.92       90.15    
        90.41       90.68       90.97       91.28       91.59       91.92       92.25       92.58       92.92       93.26    
        93.60    
  10    92.80       91.24       89.65       88.03       86.34       84.56       82.66       80.60       78.34       75.80    
        72.90       70.85       69.53       67.42       64.41       61.26       64.99       68.61       71.39       73.50    
        75.15       76.49       77.62       78.60       79.49       80.32       81.13       81.93       82.75       83.60    
        84.51       85.48       86.51       87.17       87.43       87.73       88.06       88.35       88.59       88.86    
        89.15       89.46       89.80       90.15       90.51       90.88       91.26       91.65       92.03       92.42    
        92.80    
  11    92.00       90.34       88.66       86.93       85.15       83.26       81.26       79.09       76.70       74.04    
        70.97       68.79       67.27       64.52       59.21       46.74       59.77       65.66       69.07       71.36    
        73.07       74.42       75.54       76.52       77.41       78.25       79.07       79.90       80.75       81.65    
        82.63       83.69       84.86       85.61       85.92       86.26       86.64       86.97       87.25       87.55    
        87.87       88.23       88.61       89.01       89.42       89.85       90.28       90.71       91.14       91.57    
        92.00    
  12    91.20       89.46       87.71       85.91       84.04       82.09       80.01       77.79       75.35       72.66    
        69.63       67.52       66.23       64.17       61.19       58.03       61.70       65.20       67.85       69.82    
        71.34       72.57       73.61       74.54       75.39       76.20       77.01       77.84       78.70       79.63    
        80.66       81.81       83.12       83.99       84.36       84.77       85.20       85.57       85.87       86.20    
        86.57       86.97       87.40       87.85       88.32       88.80       89.29       89.77       90.25       90.72    
        91.20    
  13    90.40       88.61       86.79       84.94       83.03       81.03       78.93       76.69       74.27       71.63    
        68.75       66.85       65.95       64.73       63.35       62.50       63.78       65.61       67.30       68.73    
        69.91       70.92       71.80       72.62       73.39       74.16       74.93       75.73       76.59       77.52    
        78.56       79.77       81.23       82.30       82.76       83.25       83.74       84.14       84.47       84.83    
        85.23       85.67       86.16       86.68       87.22       87.76       88.30       88.83       89.36       89.88    
        90.40    
  14    89.60       87.77       85.92       84.04       82.10       80.09       77.98       75.76       73.39       70.86    
        68.15       66.46       65.98       65.46       64.99       64.83       65.33       66.15       67.03       67.87    
        68.65       69.38       70.07       70.74       71.42       72.11       72.82       73.58       74.40       75.29    
        76.30       77.48       79.02       80.52       81.13       81.72       82.27       82.70       83.04       83.41    
        83.84       84.34       84.90       85.49       86.10       86.71       87.31       87.90       88.48       89.04    
        89.60    
  15    88.80       86.95       85.08       83.19       81.24       79.24       77.16       74.98       72.68       70.25    
        67.66       66.18       66.02       65.87       65.78       65.83       66.06       66.43       66.89       67.40    
        67.93       68.47       69.03       69.61       70.22       70.86       71.53       72.26       73.04       73.89    
        74.83       75.89       77.12       78.61       79.53       80.23       80.82       81.26       81.58       81.94    
        82.38       82.94       83.60       84.29       84.99       85.68       86.34       86.98       87.60       88.21    
        88.80    
  16    88.00       86.14       84.27       82.38       80.45       78.47       76.43       74.31       72.11       69.81    
        67.41       66.13       66.02       65.94       65.91       65.98       66.16       66.44       66.80       67.22    
        67.67       68.16       68.67       69.21       69.79       70.40       71.06       71.76       72.52       73.33    
        74.22       75.18       76.22       77.29       78.15       78.84       79.42       79.82       80.09       80.38    
        80.80       81.46       82.25       83.08       83.89       84.66       85.39       86.09       86.74       87.38    
        88.00    
  17    87.20       85.35       83.49       81.61       79.71       77.76       75.78       73.74       71.63       69.47    
        67.25       66.08       66.01       65.95       65.95       66.01       66.15       66.37       66.66       67.00    
        67.39       67.81       68.28       68.78       69.32       69.90       70.53       71.21       71.93       72.71    
        73.54       74.40       75.30       76.17       76.93       77.57       78.09       78.42       78.58       78.70    
        78.98       79.84       80.87       81.89       82.83       83.69       84.49       85.22       85.91       86.56    
        87.20    
  18    86.40       84.56       82.72       80.87       79.00       77.10       75.18       73.22       71.22       69.18    
        67.11       66.03       65.96       65.92       65.92       65.96       66.07       66.24       66.46       66.74    
        67.06       67.43       67.84       68.30       68.81       69.36       69.96       70.61       71.30       72.04    
        72.81       73.60       74.40       75.16       75.84       76.43       76.88       77.12       77.10       76.85    
        76.58       78.06       79.52       80.77       81.84       82.79       83.64       84.40       85.11       85.77    
        86.40    
  19    85.60       83.78       81.96       80.14       78.31       76.47       74.62       72.74       70.84       68.91    
        66.97       65.96       65.90       65.85       65.84       65.86       65.93       66.05       66.21       66.43    
        66.69       67.00       67.37       67.78       68.25       68.77       69.34       69.96       70.63       71.33    
        72.06       72.80       73.53       74.22       74.86       75.40       75.83       76.03       75.85       75.03    
        72.44       76.28       78.36       79.82       80.99       81.99       82.86       83.65       84.36       85.00    
        85.60    
  20    84.80       83.00       81.21       79.42       77.64       75.86       74.08       72.29       70.48       68.66    
        66.83       65.88       65.81       65.75       65.72       65.71       65.74       65.80       65.91       66.07    
        66.27       66.53       66.84       67.21       67.64       68.13       68.67       69.27       69.92       70.59    
        71.29       72.00       72.69       73.35       73.96       74.50       74.96       75.26       75.25       74.98    
        74.70       76.27       77.83       79.17       80.31       81.31       82.18       82.97       83.67       84.29    
        84.80    
  21    84.00       82.22       80.44       78.69       76.97       75.25       73.55       71.85       70.15       68.43    
        66.69       65.78       65.71       65.64       65.57       65.52       65.51       65.52       65.57       65.66    
        65.80       66.00       66.25       66.57       66.96       67.42       67.95       68.54       69.17       69.84    
        70.52       71.21       71.89       72.54       73.14       73.69       74.17       74.57       74.79       74.93    
        75.25       76.24       77.43       78.58       79.62       80.57       81.42       82.19       82.88       83.50    
        84.00    
  22    83.20       81.42       79.66       77.95       76.27       74.63       73.02       71.42       69.82       68.21    
        66.57       65.70       65.61       65.51       65.40       65.31       65.24       65.20       65.18       65.21    
        65.28       65.40       65.60       65.87       66.22       66.66       67.17       67.76       68.39       69.06    
        69.75       70.43       71.11       71.76       72.37       72.94       73.46       73.92       74.31       74.70    
        75.23       76.03       76.97       77.94       78.88       79.76       80.57       81.32       82.00       82.62    
        83.20    
  23    82.40       80.59       78.84       77.16       75.55       73.99       72.48       70.99       69.51       68.01    
        66.47       65.64       65.52       65.38       65.23       65.08       64.95       64.84       64.76       64.71    
        64.70       64.75       64.87       65.08       65.39       65.81       66.33       66.93       67.58       68.27    
        68.97       69.67       70.36       71.02       71.65       72.25       72.80       73.32       73.82       74.34    
        74.94       75.67       76.49       77.35       78.19       79.01       79.78       80.50       81.17       81.80    
        82.40    
  24    81.60       79.70       77.94       76.30       74.76       73.30       71.91       70.55       69.22       67.87    
        66.44       65.62       65.46       65.26       65.05       64.84       64.64       64.46       64.30       64.16    
        64.06       64.02       64.05       64.19       64.46       64.87       65.40       66.04       66.73       67.46    
        68.19       68.92       69.63       70.32       70.97       71.59       72.18       72.75       73.31       73.89    
        74.52       75.22       75.98       76.76       77.54       78.30       79.04       79.73       80.39       81.01    
        81.60    
  25    80.80       78.68       76.92       75.34       73.90       72.56       71.29       70.09       68.93       67.79    
        66.57       65.71       65.45       65.15       64.86       64.58       64.31       64.06       63.81       63.58    
        63.37       63.21       63.12       63.16       63.38       63.80       64.38       65.09       65.85       66.64    
        67.43       68.19       68.93       69.64       70.32       70.97       71.59       72.19       72.79       73.40    
        74.04       74.72       75.43       76.17       76.90       77.63       78.33       79.01       79.65       80.25    
        80.80    
  26    80.00       77.97       76.27       74.77       73.40       72.12       70.94       69.82       68.78       67.80    
        66.88       66.02       65.47       65.03       64.64       64.28       63.93       63.59       63.25       62.90    
        62.55       62.21       61.94       61.82       61.94       62.40       63.11       63.95       64.84       65.72    
        66.58       67.40       68.18       68.92       69.62       70.29       70.94       71.56       72.18       72.81    
        73.45       74.12       74.80       75.50       76.20       76.89       77.57       78.23       78.86       79.45    
        80.00    
  27    79.20       77.56       76.02       74.59       73.25       72.00       70.83       69.73       68.70       67.74    
        66.85       66.05       65.39       64.83       64.36       63.93       63.51       63.08       62.63       62.14    
        61.61       61.04       60.49       60.06       60.01       60.60       61.56       62.64       63.71       64.73    
        65.68       66.56       67.39       68.16       68.88       69.57       70.23       70.87       71.50       72.13    
        72.77       73.42       74.08       74.75       75.42       76.09       76.75       77.39       78.01       78.62    
        79.20    
  28    78.40       77.06       75.67       74.31       73.01       71.79       70.64       69.56       68.55       67.61    
        66.73       65.93       65.21       64.56       64.04       63.56       63.09       62.59       62.05       61.43    
        60.71       59.87       58.90       57.94       57.44       58.43       59.88       61.33       62.64       63.81    
        64.85       65.79       66.64       67.44       68.18       68.87       69.54       70.19       70.82       71.45    
        72.08       72.72       73.36       74.01       74.65       75.30       75.94       76.57       77.19       77.80    
        78.40    
  29    77.60       76.38       75.08       73.79       72.55       71.37       70.26       69.22       68.24       67.31    
        66.45       65.63       64.83       64.15       63.68       63.20       62.70       62.15       61.54       60.82    
        59.94       58.81       57.31       55.35       53.39       55.80       58.22       60.16       61.71       63.01    
        64.12       65.09       65.97       66.77       67.51       68.21       68.88       69.52       70.15       70.77    
        71.39       72.01       72.63       73.26       73.89       74.51       75.14       75.76       76.38       76.99    
        77.60    
  30    76.80       75.55       74.29       73.06       71.87       70.75       69.69       68.69       67.75       66.87    
        66.03       65.22       64.41       63.78       63.33       62.85       62.34       61.78       61.14       60.37    
        59.41       58.12       56.18       52.76       44.95       53.18       57.02       59.36       61.05       62.39    
        63.52       64.49       65.36       66.16       66.89       67.58       68.23       68.87       69.48       70.09    
        70.70       71.30       71.90       72.51       73.12       73.73       74.34       74.96       75.57       76.18    
        76.80    
  31    76.00       74.72       73.48       72.28       71.14       70.06       69.05       68.10       67.21       66.37    
        65.57       64.80       64.02       63.43       63.00       62.54       62.04       61.49       60.86       60.12    
        59.22       58.06       56.54       54.55       52.56       54.94       57.32       59.23       60.75       62.00    
        63.07       64.00       64.84       65.60       66.31       66.98       67.62       68.23       68.83       69.42    
        70.00       70.59       71.17       71.76       72.35       72.94       73.54       74.15       74.76       75.38    
        76.00    
  32    75.20       73.87       72.61       71.43       70.33       69.31       68.35       67.46       66.62       65.84    
        65.09       64.37       63.66       63.11       62.71       62.26       61.79       61.27       60.69       60.04    
        59.28       58.38       57.37       56.35       55.79       56.72       58.10       59.47       60.70       61.79    
        62.75       63.61       64.39       65.11       65.78       66.41       67.02       67.61       68.18       68.75    
        69.31       69.87       70.43       71.00       71.57       72.15       72.74       73.34       73.95       74.57    
        75.20    
  33    74.40       72.96       71.67       70.51       69.45       68.48       67.59       66.76       65.99       65.27    
        64.59       63.94       63.32       62.84       62.45       62.03       61.58       61.11       60.61       60.06    
        59.46       58.83       58.19       57.68       57.54       58.03       58.88       59.85       60.81       61.71    
        62.53       63.29       64.00       64.65       65.28       65.87       66.44       67.00       67.54       68.08    
        68.62       69.16       69.69       70.24       70.79       71.35       71.92       72.51       73.12       73.75    
        74.40    
  34    73.60       72.15       70.88       69.74       68.73       67.80       66.96       66.19       65.47       64.80    
        64.18       63.61       63.08       62.63       62.22       61.81       61.40       60.98       60.56       60.13    
        59.69       59.27       58.90       58.65       58.66       58.99       59.55       60.25       60.97       61.69    
        62.38       63.03       63.65       64.24       64.81       65.35       65.88       66.40       66.91       67.42    
        67.93       68.44       68.95       69.47       70.00       70.54       71.09       71.67       72.28       72.92    
        73.60    
  35    72.80       71.43       70.20       69.12       68.15       67.27       66.48       65.75       65.08       64.45    
        63.87       63.33       62.84       62.40       61.98       61.59       61.22       60.86       60.52       60.20    
        59.91       59.66       59.47       59.38       59.45       59.70       60.10       60.60       61.15       61.71    
        62.26       62.81       63.34       63.85       64.35       64.84       65.33       65.81       66.28       66.76    
        67.23       67.71       68.20       68.69       69.19       69.71       70.24       70.80       71.40       72.06    
        72.80    
  36    72.00       70.57       69.39       68.37       67.47       66.66       65.93       65.25       64.63       64.05    
        63.52       63.02       62.55       62.12       61.73       61.36       61.03       60.73       60.47       60.25    
        60.09       59.98       59.93       59.95       60.06       60.26       60.56       60.91       61.31       61.73    
        62.16       62.60       63.04       63.48       63.91       64.35       64.78       65.22       65.66       66.10    
        66.54       66.99       67.44       67.90       68.37       68.86       69.36       69.89       70.46       71.12    
        72.00    
  37    71.20       69.87       68.77       67.83       66.99       66.23       65.54       64.91       64.32       63.78    
        63.27       62.79       62.35       61.93       61.55       61.20       60.88       60.61       60.40       60.25    
        60.17       60.14       60.17       60.24       60.37       60.55       60.79       61.07       61.39       61.73    
        62.10       62.47       62.86       63.25       63.65       64.05       64.45       64.86       65.28       65.70    
        66.12       66.55       66.98       67.42       67.88       68.34       68.81       69.31       69.84       70.43    
        71.20    
  38    70.40       69.34       68.37       67.49       66.70       65.98       65.32       64.72       64.15       63.62    
        63.13       62.66       62.23       61.82       61.44       61.09       60.78       60.51       60.31       60.19    
        60.15       60.15       60.19       60.28       60.41       60.59       60.82       61.09       61.39       61.72    
        62.06       62.42       62.79       63.17       63.56       63.95       64.34       64.74       65.15       65.56    
        65.97       66.39       66.82       67.26       67.70       68.15       68.61       69.09       69.57       70.03    
        70.40    
  39    69.60       68.71       67.86       67.07       66.35       65.68       65.06       64.48       63.94       63.44    
        62.96       62.51       62.09       61.68       61.30       60.94       60.62       60.35       60.15       60.05    
        60.04       60.08       60.15       60.26       60.41       60.59       60.81       61.06       61.33       61.64    
        61.95       62.29       62.63       62.98       63.34       63.71       64.09       64.47       64.85       65.25    
        65.65       66.05       66.46       66.87       67.29       67.72       68.15       68.58       69.00       69.38    
        69.60    
  40    68.80       68.04       67.29       66.59       65.93       65.32       64.74       64.20       63.70       63.22    
        62.77       62.33       61.92       61.52       61.13       60.76       60.41       60.11       59.89       59.80    
        59.84       59.93       60.06       60.20       60.36       60.54       60.75       60.98       61.23       61.49    
        61.78       62.07       62.38       62.69       63.01       63.34       63.68       64.03       64.39       64.76    
        65.14       65.51       65.90       66.28       66.67       67.06       67.44       67.82       68.19       68.52    
        68.80    
  41    68.00       67.34       66.69       66.07       65.48       64.92       64.39       63.90       63.43       62.98    
[...]
        66.44       65.62       65.46       65.26       65.05       64.84       64.64       64.46       64.30       64.16    
        64.06       64.02       64.05       64.19       64.46       64.87       65.40       66.04       66.73       67.46    
        68.19       68.92       69.63       70.32       70.97       71.59       72.18       72.75       73.31       73.89    
        74.52       75.22       75.98       76.76       77.54       78.30       79.04       79.73       80.39       81.01    
        81.60    
  25    80.80       78.68       76.92       75.34       73.90       72.56       71.29       70.09       68.93       67.79    
        66.57       65.71       65.45       65.15       64.86       64.58       64.31       64.06       63.81       63.58    
        63.37       63.21       63.12       63.16       63.38       63.80       64.38       65.09       65.85       66.64    
        67.43       68.19       68.93       69.64       70.32       70.97       71.59       72.19       72.79       73.40    
        74.04       74.72       75.43       76.17       76.90       77.63       78.33       79.01       79.65       80.25    
        80.80    
  26    80.00       77.97       76.27       74.77       73.40       72.12       70.94       69.82       68.78       67.80    
        66.88       66.02       65.47       65.03       64.64       64.28       63.93       63.59       63.25       62.90    
        62.55       62.21       61.94       61.82       61.94       62.40       63.11       63.95       64.84       65.72    
        66.58       67.40       68.18       68.92       69.62       70.29       70.94       71.56       72.18       72.81    
        73.45       74.12       74.80       75.50       76.20       76.89       77.57       78.23       78.86       79.45    
        80.00    
  27    79.20       77.56       76.02       74.59       73.25       72.00       70.83       69.73       68.70       67.74    
        66.85       66.05       65.39       64.83       64.36       63.93       63.51       63.08       62.63       62.14    
        61.61       61.04       60.49       60.06       60.01       60.60       61.56       62.64       63.71       64.73    
        65.68       66.56       67.39       68.16       68.88       69.57       70.23       70.87       71.50       72.13    
        72.77       73.42       74.08       74.75       75.42       76.09       76.75       77.39       78.01       78.62    
        79.20    
  28    78.40       77.06       75.67       74.31       73.01       71.79       70.64       69.56       68.55       67.61    
        66.73       65.93       65.21       64.56       64.04       63.56       63.09       62.59       62.05       61.43    
        60.71       59.87       58.90       57.94       57.44       58.43       59.88       61.33       62.64       63.81    
        64.85       65.79       66.64       67.44       68.18       68.87       69.54       70.19       70.82       71.45    
        72.08       72.72       73.36       74.01       74.65       75.30       75.94       76.57       77.19       77.80    
        78.40    
  29    77.60       76.38       75.08       73.79       72.55       71.37       70.26       69.22       68.24       67.31    
        66.45       65.63       64.83       64.15       63.68       63.20       62.70       62.15       61.54       60.82    
        59.94       58.81       57.31       55.35       53.39       55.80       58.22       60.16       61.71       63.01    
        64.12       65.09       65.97       66.77       67.51       68.21       68.88       69.52       70.15       70.77    
        71.39       72.01       72.63       73.26       73.89       74.51       75.14       75.76       76.38       76.99    
        77.60    
  30    76.80       75.55       74.29       73.06       71.87       70.75       69.69       68.69       67.75       66.87    
        66.03       65.22       64.41       63.78       63.33       62.85       62.34       61.78       61.14       60.37    
        59.41       58.12       56.18       52.76       44.95       53.18       57.02       59.36       61.05       62.39    
        63.52       64.49       65.36       66.16       66.89       67.58       68.23       68.87       69.48       70.09    
        70.70       71.30       71.90       72.51       73.12       73.73       74.34       74.96       75.57       76.18    
        76.80    
  31    76.00       74.72       73.48       72.28       71.14       70.06       69.05       68.10       67.21       66.37    
        65.57       64.80       64.02       63.43       63.00       62.54       62.04       61.49       60.86       60.12    
        59.22       58.06       56.54       54.55       52.56       54.94       57.32       59.23       60.75       62.00    
        63.07       64.00       64.84       65.60       66.31       66.98       67.62       68.23       68.83       69.42    
        70.00       70.59       71.17       71.76       72.35       72.94       73.54       74.15       74.76       75.38    
        76.00    
  32    75.20       73.87       72.61       71.43       70.33       69.31       68.35       67.46       66.62       65.84    
        65.09       64.37       63.66       63.11       62.71       62.26       61.79       61.27       60.69       60.04    
        59.28       58.38       57.37       56.35       55.79       56.72       58.10       59.47       60.70       61.79    
        62.75       63.61       64.39       65.11       65.78       66.41       67.02       67.61       68.18       68.75    
        69.31       69.87       70.43       71.00       71.57       72.15       72.74       73.34       73.95       74.57    
        75.20    
  33    74.40       72.96       71.67       70.51       69.45       68.48       67.59       66.76       65.99       65.27    
        64.59       63.94       63.32       62.84       62.45       62.03       61.58       61.11       60.61       60.06    
        59.46       58.83       58.19       57.68       57.54       58.03       58.88       59.85       60.81       61.71    
        62.53       63.29       64.00       64.65       65.28       65.87       66.44       67.00       67.54       68.08    
        68.62       69.16       69.69       70.24       70.79       71.35       71.92       72.51       73.12       73.75    
        74.40    
  34    73.60       72.15       70.88       69.74       68.73       67.80       66.96       66.19       65.47       64.80    
        64.18       63.61       63.08       62.63       62.22       61.81       61.40       60.98       60.56       60.13    
        59.69       59.27       58.90       58.65       58.66       58.99       59.55       60.25       60.97       61.69    
        62.38       63.03       63.65       64.24       64.81       65.35       65.88       66.40       66.91       67.42    
        67.93       68.44       68.95       69.47       70.00       70.54       71.09       71.67       72.28       72.92    
        73.60    
  35    72.80       71.43       70.20       69.12       68.15       67.27       66.48       65.75       65.08       64.45    
        63.87       63.33       62.84       62.40       61.98       61.59       61.22       60.86       60.52       60.20    
        59.91       59.66       59.47       59.38       59.45       59.70       60.10       60.60       61.15       61.71    
        62.26       62.81       63.34       63.85       64.35       64.84       65.33       65.81       66.28       66.76    
        67.23       67.71       68.20       68.69       69.19       69.71       70.24       70.80       71.40       72.06    
        72.80    
  36    72.00       70.57       69.39       68.37       67.47       66.66       65.93       65.25       64.63       64.05    
        63.52       63.02       62.55       62.12       61.73       61.36       61.03       60.73       60.47       60.25    
        60.09       59.98       59.93       59.95       60.06       60.26       60.56       60.91       61.31       61.73    
        62.16       62.60       63.04       63.48       63.91       64.35       64.78       65.22       65.66       66.10    
        66.54       66.99       67.44       67.90       68.37       68.86       69.36       69.89       70.46       71.12    
        72.00    
  37    71.20       69.87       68.77       67.83       66.99       66.23       65.54       64.91       64.32       63.78    
        63.27       62.79       62.35       61.93       61.55       61.20       60.88       60.61       60.40       60.25    
        60.17       60.14       60.17       60.24       60.37       60.55       60.79       61.07       61.39       61.73    
        62.10       62.47       62.86       63.25       63.65       64.05       64.45       64.86       65.28       65.70    
        66.12       66.55       66.98       67.42       67.88       68.34       68.81       69.31       69.84       70.43    
        71.20    
  38    70.40       69.34       68.37       67.49       66.70       65.98       65.32       64.72       64.15       63.62    
        63.13       62.66       62.23       61.82       61.44       61.09       60.78       60.51       60.31       60.19    
        60.15       60.15       60.19       60.28       60.41       60.59       60.82       61.09       61.39       61.72    
        62.06       62.42       62.79       63.17       63.56       63.95       64.34       64.74       65.15       65.56    
        65.97       66.39       66.82       67.26       67.70       68.15       68.61       69.09       69.57       70.03    
        70.40    
  39    69.60       68.71       67.86       67.07       66.35       65.68       65.06       64.48       63.94       63.44    
        62.96       62.51       62.09       61.68       61.30       60.94       60.62       60.35       60.15       60.05    
        60.04       60.08       60.15       60.26       60.41       60.59       60.81       61.06       61.33       61.64    
        61.95       62.29       62.63       62.98       63.34       63.71       64.09       64.47       64.85       65.25    
        65.65       66.05       66.46       66.87       67.29       67.72       68.15       68.58       69.00       69.38    
        69.60    
  40    68.80       68.04       67.29       66.59       65.93       65.32       64.74       64.20       63.70       63.22    
        62.77       62.33       61.92       61.52       61.13       60.76       60.41       60.11       59.89       59.80    
        59.84       59.93       60.06       60.20       60.36       60.54       60.75       60.98       61.23       61.49    
        61.78       62.07       62.38       62.69       63.01       63.34       63.68       64.03       64.39       64.76    
        65.14       65.51       65.90       66.28       66.67       67.06       67.44       67.82       68.19       68.52    
        68.80    
  41    68.00       67.34       66.69       66.07       65.48       64.92       64.39       63.90       63.43       62.98    
        62.55       62.14       61.74       61.35       60.95       60.56       60.16       59.78       59.49       59.46    
        59.58       59.76       59.94       60.12       60.29       60.48       60.67       60.88       61.10       61.34    
        61.59       61.84       62.11       62.39       62.67       62.97       63.27       63.59       63.92       64.27    
        64.62       64.98       65.33       65.69       66.04       66.39       66.74       67.08       67.41       67.71    
        68.00    
  42    67.20       66.63       66.06       65.51       64.99       64.49       64.01       63.56       63.13       62.72    
        62.32       61.93       61.55       61.17       60.78       60.36       59.89       59.36       58.84       59.02    
        59.30       59.60       59.84       60.04       60.22       60.40       60.58       60.77       60.96       61.17    
        61.38       61.61       61.84       62.08       62.32       62.58       62.85       63.13       63.44       63.77    
        64.11       64.44       64.77       65.09       65.41       65.73       66.04       66.35       66.64       66.93    
        67.20    
  43    66.40       65.90       65.42       64.94       64.48       64.03       63.61       63.21       62.82       62.44    
        62.08       61.72       61.37       61.01       60.63       60.20       59.69       58.94       57.49       58.59    
        59.11       59.50       59.77       59.97       60.15       60.32       60.48       60.65       60.82       60.99    
        61.17       61.36       61.56       61.76       61.97       62.18       62.41       62.66       62.93       63.27    
        63.59       63.91       64.21       64.50       64.79       65.08       65.35       65.62       65.89       66.15    
        66.40    
  44    65.60       65.18       64.76       64.35       63.95       63.56       63.19       62.83       62.49       62.16    
        61.83       61.51       61.19       60.86       60.52       60.14       59.72       59.22       58.73       58.95    
        59.25       59.53       59.75       59.94       60.10       60.25       60.40       60.55       60.69       60.84    
        61.00       61.16       61.32       61.49       61.67       61.86       62.05       62.25       62.47       62.78    
        63.09       63.38       63.66       63.92       64.18       64.43       64.67       64.91       65.14       65.37    
        65.60    
  45    64.80       64.44       64.09       63.74       63.40       63.07       62.75       62.45       62.15       61.86    
        61.58       61.30       61.02       60.73       60.44       60.13       59.81       59.50       59.27       59.29    
        59.43       59.61       59.78       59.94       60.08       60.21       60.34       60.47       60.60       60.73    
        60.86       61.00       61.14       61.29       61.44       61.60       61.77       61.94       62.11       62.35    
        62.62       62.87       63.11       63.34       63.57       63.78       63.99       64.20       64.40       64.60    
        64.80    
  46    64.00       63.71       63.41       63.13       62.85       62.57       62.31       62.05       61.80       61.56    
        61.32       61.08       60.85       60.61       60.37       60.13       59.90       59.69       59.56       59.53    
        59.59       59.71       59.83       59.95       60.06       60.18       60.28       60.39       60.50       60.61    
        60.73       60.84       60.96       61.08       61.21       61.34       61.48       61.62       61.76       61.94    
        62.17       62.38       62.58       62.77       62.96       63.14       63.32       63.49       63.66       63.83    
        64.00    
  47    63.20       62.97       62.74       62.51       62.29       62.07       61.86       61.65       61.45       61.25    
        61.06       60.87       60.68       60.50       60.31       60.13       59.96       59.82       59.73       59.70    
        59.73       59.79       59.87       59.96       60.05       60.14       60.23       60.32       60.40       60.49    
        60.58       60.68       60.77       60.87       60.97       61.08       61.18       61.29       61.40       61.55    
        61.72       61.89       62.06       62.21       62.36       62.51       62.65       62.79       62.93       63.07    
        63.20    
  48    62.40       62.23       62.05       61.89       61.72       61.56       61.40       61.24       61.09       60.94    
        60.80       60.66       60.51       60.38       60.24       60.11       60.00       59.90       59.84       59.81    
        59.82       59.86       59.92       59.98       60.04       60.11       60.17       60.24       60.30       60.37    
        60.44       60.51       60.58       60.66       60.73       60.81       60.89       60.97       61.05       61.16    
        61.29       61.42       61.54       61.65       61.77       61.88       61.99       62.09       62.20       62.30    
        62.40    
  49    61.60       61.49       61.37       61.26       61.15       61.04       60.93       60.83       60.73       60.63    
        60.53       60.44       60.34       60.25       60.17       60.08       60.01       59.95       59.91       59.89    
        59.90       59.92       59.95       59.99       60.03       60.07       60.11       60.16       60.20       60.25    
        60.29       60.34       60.39       60.44       60.49       60.54       60.59       60.65       60.70       60.77    
        60.86       60.94       61.02       61.10       61.18       61.25       61.32       61.39       61.46       61.53    
        61.60    
  50    60.80       60.74       60.69       60.63       60.57       60.52       60.47       60.42       60.36       60.32    
        60.27       60.22       60.17       60.13       60.08       60.04       60.01       59.98       59.96       59.95    
        59.95       59.96       59.98       59.99       60.01       60.04       60.06       60.08       60.10       60.12    
        60.15       60.17       60.19       60.22       60.24       60.27       60.30       60.32       60.35       60.39    
        60.43       60.47       60.51       60.55       60.59       60.63       60.66       60.70       60.73       60.77    
        60.80    
  51    120.0       60.00       60.00       60.00       60.00       60.00       60.00       60.00       60.00       60.00    
        60.00       60.00       60.00       60.00       60.00       60.00       60.00       60.00       60.00       60.00    
        60.00       60.00       60.00       60.00       60.00       60.00       60.00       60.00       60.00       60.00    
        60.00       60.00       60.00       60.00       60.00       60.00       60.00       60.00       60.00       60.00    
        60.00       60.00       60.00       60.00       60.00       60.00       60.00       60.00       60.00       60.00    
        120.0    

 HEAD WILL BE SAVED ON UNIT   51 AT END OF TIME STEP   1, STRESS PERIOD   10
1
  VOLUMETRIC BUDGET FOR ENTIRE MODEL AT END OF TIME STEP  1 IN STRESS PERIOD  10
  ------------------------------------------------------------------------------

     CUMULATIVE VOLUMES      L**3       RATES FOR THIS TIME STEP      L**3/T
     ------------------                 ------------------------

           IN:                                      IN:
           ---                                      ---
             STORAGE =           0.0000               STORAGE =           0.0000
       CONSTANT HEAD =  1393549700.0000         CONSTANT HEAD =      381533.1250
               WELLS =           0.0000                 WELLS =           0.0000

            TOTAL IN =  1393549700.0000              TOTAL IN =      381533.1250

          OUT:                                     OUT:
          ----                                     ----
             STORAGE =           0.0000               STORAGE =           0.0000
       CONSTANT HEAD =   409201024.0000         CONSTANT HEAD =      112033.1410
               WELLS =   984348736.0000                 WELLS =      269500.0000

           TOTAL OUT =  1393549820.0000             TOTAL OUT =      381533.1250

            IN - OUT =         -64.0000              IN - OUT =      -1.5625E-02

 PERCENT DISCREPANCY =           0.00     PERCENT DISCREPANCY =           0.00






          TIME SUMMARY AT END OF TIME STEP   1 IN STRESS PERIOD   10
                    SECONDS     MINUTES      HOURS       DAYS        YEARS
                    -----------------------------------------------------------
   TIME STEP LENGTH 3.15576E+07 5.25960E+05  8766.0      365.25      1.0000    
 STRESS PERIOD TIME 3.15576E+07 5.25960E+05  8766.0      365.25      1.0000    
         TOTAL TIME 3.15576E+08 5.25960E+06  87660.      3652.5      10.000    
1
